Nordic - 32/PSSE files for Nordic-32/Nordic_voltage_collapse_0.raw
0,   100.00, 33, 0, 1, 50.00     / PSS(R)E-33.4    TUE, MAR 17 2020  18:07
IEEE TF ON VOLTAGE STABILITY BENCHMARK MODELS
TEST SYSTEM DATA - NORDIC SYSTEM
     1,'LOAD 1041   ',  20.0000,1,   2,   1,   1,0.99869, -84.7404,1.10000,0.90000,1.10000,0.90000
     2,'LOAD 1042   ',  20.0000,1,   2,   1,   1,1.00116, -70.5199,1.10000,0.90000,1.10000,0.90000
     3,'LOAD 1043   ',  20.0000,1,   2,   1,   1,0.99733, -79.9993,1.10000,0.90000,1.10000,0.90000
     4,'LOAD 1044   ',  20.0000,1,   2,   1,   1,0.99954, -70.7024,1.10000,0.90000,1.10000,0.90000
     5,'LOAD 1043   ',  20.0000,1,   2,   1,   1,0.99599, -74.6220,1.10000,0.90000,1.10000,0.90000
    11,'LOAD 1011   ',  20.0000,1,   1,   1,   1,1.00231,  -9.4527,1.10000,0.90000,1.10000,0.90000
    12,'LOAD 1012   ',  20.0000,1,   1,   1,   1,0.99721,  -5.9366,1.10000,0.90000,1.10000,0.90000
    13,'LOAD 1013   ',  20.0000,1,   1,   1,   1,0.99562,  -1.5825,1.10000,0.90000,1.10000,0.90000
    22,'LOAD 1022   ',  20.0000,1,   1,   1,   1,0.99500, -21.9085,1.10000,0.90000,1.10000,0.90000
    31,'LOAD 2031   ',  20.0000,1,   1,   1,   1,1.00405, -39.4894,1.10000,0.90000,1.10000,0.90000
    32,'LOAD 2032   ',  20.0000,1,   1,   1,   1,0.99772, -26.7931,1.10000,0.90000,1.10000,0.90000
    41,'LOAD 4041   ',  20.0000,1,   2,   1,   1,0.99663, -57.1708,1.10000,0.90000,1.10000,0.90000
    42,'LOAD 4042   ',  20.0000,1,   2,   1,   1,0.99513, -60.2452,1.10000,0.90000,1.10000,0.90000
    43,'LOAD 4043   ',  20.0000,1,   2,   1,   1,1.00120, -66.3571,1.10000,0.90000,1.10000,0.90000
    46,'LOAD 4046   ',  20.0000,1,   2,   1,   1,0.99896, -66.9638,1.10000,0.90000,1.10000,0.90000
    47,'LOAD 4047   ',  20.0000,1,   2,   1,   1,0.99492, -62.4062,1.10000,0.90000,1.10000,0.90000
    51,'LOAD 4051   ',  20.0000,1,   2,   1,   1,0.99771, -73.8714,1.10000,0.90000,1.10000,0.90000
    61,'LOAD 4061   ',  20.0000,1,   3,   1,   1,0.99482, -60.8136,1.10000,0.90000,1.10000,0.90000
    62,'LOAD 4062   ',  20.0000,1,   3,   1,   1,1.00018, -57.2071,1.10000,0.90000,1.10000,0.90000
    63,'LOAD 4063   ',  20.0000,1,   3,   1,   1,0.99918, -53.5181,1.10000,0.90000,1.10000,0.90000
    71,'LOAD 4071   ',  20.0000,1,   4,   1,   1,1.00264,  -7.8027,1.10000,0.90000,1.10000,0.90000
    72,'LOAD 4072   ',  20.0000,1,   4,   1,   1,0.99738,  -6.8267,1.10000,0.90000,1.10000,0.90000
  1011,'1011        ', 130.0000,1,   1,   1,   1,1.06152,  -6.6513,1.10000,0.90000,1.10000,0.90000
  1012,'1012        ', 130.0000,1,   1,   1,   1,1.06308,  -3.0979,1.10000,0.90000,1.10000,0.90000
  1013,'1013        ', 130.0000,1,   1,   1,   1,1.05471,   1.2559,1.10000,0.90000,1.10000,0.90000
  1014,'1014        ', 130.0000,1,   1,   1,   1,1.06101,   4.2566,1.10000,0.90000,1.10000,0.90000
  1021,'1021        ', 130.0000,1,   1,   1,   1,1.03105,   2.6361,1.10000,0.90000,1.10000,0.90000
  1022,'1022        ', 130.0000,1,   1,   1,   1,1.05101, -19.0583,1.10000,0.90000,1.10000,0.90000
  1041,'1041        ', 130.0000,1,   2,   1,   1,1.01230, -81.9055,1.10000,0.90000,1.10000,0.90000
  1042,'1042        ', 130.0000,1,   2,   1,   1,1.01447, -67.4157,1.10000,0.90000,1.10000,0.90000
  1043,'1043        ', 130.0000,1,   2,   1,   1,1.02735, -76.8054,1.10000,0.90000,1.10000,0.90000
  1044,'1044        ', 130.0000,1,   2,   1,   1,1.00649, -67.7410,1.10000,0.90000,1.10000,0.90000
  1045,'1045        ', 130.0000,1,   2,   1,   1,1.01097, -71.6943,1.10000,0.90000,1.10000,0.90000
  2031,'2031        ', 220.0000,1,   1,   1,   1,1.02774, -36.6843,1.10000,0.90000,1.10000,0.90000
  2032,'2032        ', 220.0000,1,   1,   1,   1,1.06942, -23.9458,1.10000,0.90000,1.10000,0.90000
  4011,'4011        ', 400.0000,1,   1,   1,   1,1.02218,  -7.5508,1.10000,0.90000,1.10000,0.90000
  4012,'4012        ', 400.0000,1,   1,   1,   1,1.02310,  -5.5384,1.10000,0.90000,1.10000,0.90000
  4021,'4021        ', 400.0000,1,   1,   1,   1,1.04866, -36.1019,1.10000,0.90000,1.10000,0.90000
  4022,'4022        ', 400.0000,1,   1,   1,   1,0.99442, -20.8783,1.10000,0.90000,1.10000,0.90000
  4031,'4031        ', 400.0000,1,   1,   1,   1,1.03651, -39.4850,1.10000,0.90000,1.10000,0.90000
  4032,'4032        ', 400.0000,1,   1,   1,   1,1.04850, -44.5612,1.10000,0.90000,1.10000,0.90000
  4041,'4041        ', 400.0000,1,   2,   1,   1,1.05049, -54.3238,1.10000,0.90000,1.10000,0.90000
  4042,'4042        ', 400.0000,1,   2,   1,   1,1.04275, -57.4004,1.10000,0.90000,1.10000,0.90000
  4043,'4043        ', 400.0000,1,   2,   1,   1,1.03689, -63.5412,1.10000,0.90000,1.10000,0.90000
  4044,'4044        ', 400.0000,1,   2,   1,   1,1.03936, -64.2590,1.10000,0.90000,1.10000,0.90000
  4045,'4045        ', 400.0000,1,   2,   1,   1,1.05324, -68.9065,1.10000,0.90000,1.10000,0.90000
  4046,'4046        ', 400.0000,1,   2,   1,   1,1.03564, -64.1382,1.10000,0.90000,1.10000,0.90000
  4047,'4047        ', 400.0000,1,   2,   1,   1,1.05900, -59.5772,1.10000,0.90000,1.10000,0.90000
  4051,'4051        ', 400.0000,1,   2,   1,   1,1.06588, -71.0416,1.10000,0.90000,1.10000,0.90000
  4061,'4061        ', 400.0000,1,   3,   1,   1,1.03864, -57.9566,1.10000,0.90000,1.10000,0.90000
  4062,'4062        ', 400.0000,1,   3,   1,   1,1.05599, -54.3850,1.10000,0.90000,1.10000,0.90000
  4063,'4063        ', 400.0000,1,   3,   1,   1,1.05354, -50.7139,1.10000,0.90000,1.10000,0.90000
  4071,'4071        ', 400.0000,1,   4,   1,   1,1.04832,  -4.9942,1.10000,0.90000,1.10000,0.90000
  4072,'4072        ', 400.0000,1,   4,   1,   1,1.05898,  -3.9775,1.10000,0.90000,1.10000,0.90000
 50001,'G1          ',  15.0000,2,   1,   1,   1,1.06840,   2.5865,1.10000,0.90000,1.10000,0.90000
 50002,'G2          ',  15.0000,2,   1,   1,   1,1.05650,   5.1153,1.10000,0.90000,1.10000,0.90000
 50003,'G3          ',  15.0000,2,   1,   1,   1,1.05950,  10.2747,1.10000,0.90000,1.10000,0.90000
 50004,'G4          ',  15.0000,2,   1,   1,   1,1.03390,   8.0188,1.10000,0.90000,1.10000,0.90000
 50005,'G5          ',  15.0000,2,   1,   1,   1,1.02940, -12.3704,1.10000,0.90000,1.10000,0.90000
 50006,'G6          ',  15.0000,2,   2,   1,   1,1.00840, -59.4509,1.10000,0.90000,1.10000,0.90000
 50007,'G7          ',  15.0000,2,   2,   1,   1,1.01410, -68.9856,1.10000,0.90000,1.10000,0.90000
 50008,'G8          ',  15.0000,2,   1,   1,   1,1.04980, -16.8352,1.10000,0.90000,1.10000,0.90000
 50009,'G9          ',  15.0000,2,   1,   1,   1,0.99880,  -1.6314,1.10000,0.90000,1.10000,0.90000
 50010,'G10         ',  15.0000,2,   1,   1,   1,1.01423,   0.9982,1.10000,0.90000,1.10000,0.90000
 50011,'G11         ',  15.0000,2,   1,   1,   1,1.02110, -29.0613,1.10000,0.90000,1.10000,0.90000
 50012,'G12         ',  15.0000,2,   1,   1,   1,1.02000, -31.9029,1.10000,0.90000,1.10000,0.90000
 50013,'G13         ',  15.0000,2,   2,   1,   1,1.01700, -54.3238,1.10000,0.90000,1.10000,0.90000
 50014,'G14         ',  15.0000,2,   2,   1,   1,1.04540, -49.9288,1.10000,0.90000,1.10000,0.90000
 50015,'G15         ',  15.0000,2,   2,   1,   1,1.04550, -52.2216,1.10000,0.90000,1.10000,0.90000
 50016,'G16         ',  15.0000,2,   2,   1,   1,1.05310, -64.1339,1.10000,0.90000,1.10000,0.90000
 50017,'G17         ',  15.0000,2,   3,   1,   1,1.00920, -46.8838,1.10000,0.90000,1.10000,0.90000
 50018,'G18         ',  15.0000,2,   3,   1,   1,1.03070, -43.3528,1.10000,0.90000,1.10000,0.90000
 50019,'G19         ',  15.0000,2,   4,   1,   1,1.03000,   0.0266,1.10000,0.90000,1.10000,0.90000
 50020,'G20         ',  15.0000,3,   4,   1,   1,1.01850,   0.0000,1.10000,0.90000,1.10000,0.90000
0 / END OF BUS DATA, BEGIN LOAD DATA
     1,'1 ',1,   2,   1,   600.000,   148.200,     0.000,     0.000,     0.000,     0.000,   1,1,0
     2,'1 ',1,   2,   1,   330.000,    71.000,     0.000,     0.000,     0.000,     0.000,   1,1,0
     3,'1 ',1,   2,   1,   260.000,    83.800,     0.000,     0.000,     0.000,     0.000,   1,1,0
     4,'1 ',1,   2,   1,   840.000,   252.000,     0.000,     0.000,     0.000,     0.000,   1,1,0
     5,'1 ',1,   2,   1,   720.000,   190.400,     0.000,     0.000,     0.000,     0.000,   1,1,0
    11,'1 ',1,   1,   1,   200.000,    68.800,     0.000,     0.000,     0.000,     0.000,   1,1,0
    12,'1 ',1,   1,   1,   300.000,    83.800,     0.000,     0.000,     0.000,     0.000,   1,1,0
    13,'1 ',1,   1,   1,   100.000,    34.400,     0.000,     0.000,     0.000,     0.000,   1,1,0
    22,'1 ',1,   1,   1,   280.000,    79.900,     0.000,     0.000,     0.000,     0.000,   1,1,0
    31,'1 ',1,   1,   1,   100.000,    24.700,     0.000,     0.000,     0.000,     0.000,   1,1,0
    32,'1 ',1,   1,   1,   200.000,    39.600,     0.000,     0.000,     0.000,     0.000,   1,1,0
    41,'1 ',1,   2,   1,   540.000,   131.400,     0.000,     0.000,     0.000,     0.000,   1,1,0
    42,'1 ',1,   2,   1,   400.000,   127.400,     0.000,     0.000,     0.000,     0.000,   1,1,0
    43,'1 ',1,   2,   1,   900.000,   254.600,     0.000,     0.000,     0.000,     0.000,   1,1,0
    46,'1 ',1,   2,   1,   700.000,   211.800,     0.000,     0.000,     0.000,     0.000,   1,1,0
    47,'1 ',1,   2,   1,   100.000,    44.000,     0.000,     0.000,     0.000,     0.000,   1,1,0
    51,'1 ',1,   2,   1,   800.000,   258.200,     0.000,     0.000,     0.000,     0.000,   1,1,0
    61,'1 ',1,   3,   1,   500.000,   122.500,     0.000,     0.000,     0.000,     0.000,   1,1,0
    62,'1 ',1,   3,   1,   300.000,    83.800,     0.000,     0.000,     0.000,     0.000,   1,1,0
    63,'1 ',1,   3,   1,   590.000,   264.600,     0.000,     0.000,     0.000,     0.000,   1,1,0
    71,'1 ',1,   4,   1,   300.000,    83.800,     0.000,     0.000,     0.000,     0.000,   1,1,0
    72,'1 ',1,   4,   1,  2000.000,   396.100,     0.000,     0.000,     0.000,     0.000,   1,1,0
0 / END OF LOAD DATA, BEGIN FIXED SHUNT DATA
0 / END OF FIXED SHUNT DATA, BEGIN GENERATOR DATA
 50001,'1 ',   600.000,    60.115,   249.800,  -249.800,1.06840,     0,   800.000, 0.00000E+0, 2.00000E-1, 0.00000E+0, 0.00000E+0,1.00000,1,  100.0,   760.000,     0.000,   1,1.0000
 50002,'1 ',   300.000,    17.693,   187.350,  -187.350,1.05650,     0,   600.000, 0.00000E+0, 2.00000E-1, 0.00000E+0, 0.00000E+0,1.00000,1,  100.0,   570.000,     0.000,   1,1.0000
 50003,'1 ',   550.000,    21.425,   218.575,  -218.575,1.05950,     0,   700.000, 0.00000E+0, 2.00000E-1, 0.00000E+0, 0.00000E+0,1.00000,1,  100.0,   665.000,     0.000,   1,1.0000
 50004,'1 ',   400.000,    30.596,   187.350,  -187.350,1.03390,     0,   600.000, 0.00000E+0, 2.00000E-1, 0.00000E+0, 0.00000E+0,1.00000,1,  100.0,   570.000,     0.000,   1,1.0000
 50005,'1 ',   200.000,    60.475,    78.062,   -78.062,1.02940,     0,   250.000, 0.00000E+0, 2.00000E-1, 0.00000E+0, 0.00000E+0,1.00000,1,  100.0,   237.500,     0.000,   1,1.0000
 50006,'1 ',   360.000,   138.649,   174.356,  -124.900,1.00840,     0,   400.000, 0.00000E+0, 2.00000E-1, 0.00000E+0, 0.00000E+0,1.00000,1,  100.0,   360.000,     0.000,   1,1.0000
 50007,'1 ',   180.000,    60.536,    87.178,   -62.450,1.01410,     0,   200.000, 0.00000E+0, 2.00000E-1, 0.00000E+0, 0.00000E+0,1.00000,1,  100.0,   180.000,     0.000,   1,1.0000
 50008,'1 ',   750.000,   232.846,   265.412,  -265.412,1.04980,     0,   850.000, 0.00000E+0, 2.00000E-1, 0.00000E+0, 0.00000E+0,1.00000,1,  100.0,   807.500,     0.000,   1,1.0000
 50009,'1 ',   668.500,   203.023,   312.250,  -312.250,0.99880,     0,  1000.000, 0.00000E+0, 2.00000E-1, 0.00000E+0, 0.00000E+0,1.00000,1,  100.0,   950.000,     0.000,   1,1.0000
 50010,'1 ',   600.000,   249.800,   249.800,  -249.800,1.01570,     0,   800.000, 0.00000E+0, 2.00000E-1, 0.00000E+0, 0.00000E+0,1.00000,1,  100.0,   760.000,     0.000,   1,1.0000
 50011,'1 ',   250.000,    61.068,    93.675,   -93.675,1.02110,     0,   300.000, 0.00000E+0, 2.00000E-1, 0.00000E+0, 0.00000E+0,1.00000,1,  100.0,   285.000,     0.000,   1,1.0000
 50012,'1 ',   310.000,    98.716,   109.287,  -109.287,1.02000,     0,   350.000, 0.00000E+0, 2.00000E-1, 0.00000E+0, 0.00000E+0,1.00000,1,  100.0,   332.500,     0.000,   1,1.0000
 50013,'1 ',     0.000,    50.446,   300.000,  -200.000,1.01700,     0,   300.000, 0.00000E+0, 2.00000E-1, 0.00000E+0, 0.00000E+0,1.00000,1,  100.0,     0.000,     0.000,   1,1.0000
 50014,'1 ',   630.000,   296.305,   305.123,  -218.575,1.04540,     0,   700.000, 0.00000E+0, 2.00000E-1, 0.00000E+0, 0.00000E+0,1.00000,1,  100.0,   630.000,     0.000,   1,1.0000
 50015,'1 ',  1080.000,   378.298,   523.068,  -374.700,1.04550,     0,  1200.000, 0.00000E+0, 2.00000E-1, 0.00000E+0, 0.00000E+0,1.00000,1,  100.0,  1080.000,     0.000,   1,1.0000
 50016,'1 ',   600.000,   222.865,   305.123,  -218.575,1.05310,     0,   700.000, 0.00000E+0, 2.00000E-1, 0.00000E+0, 0.00000E+0,1.00000,1,  100.0,   630.000,     0.000,   1,1.0000
 50017,'1 ',   530.000,    48.852,   261.534,  -187.350,1.00920,     0,   600.000, 0.00000E+0, 2.00000E-1, 0.00000E+0, 0.00000E+0,1.00000,1,  100.0,   540.000,     0.000,   1,1.0000
 50018,'1 ',  1060.000,   293.556,   523.068,  -374.700,1.03070,     0,  1200.000, 0.00000E+0, 2.00000E-1, 0.00000E+0, 0.00000E+0,1.00000,1,  100.0,  1080.000,     0.000,   1,1.0000
 50019,'1 ',   300.000,   121.638,   156.125,  -156.125,1.03000,     0,   500.000, 0.00000E+0, 2.00000E-1, 0.00000E+0, 0.00000E+0,1.00000,1,  100.0,   475.000,     0.000,   1,1.0000
 50020,'1 ',  2137.588,   378.129,  1405.125, -1405.125,1.01850,     0,  4500.000, 0.00000E+0, 2.00000E-1, 0.00000E+0, 0.00000E+0,1.00000,1,  100.0,  4275.000,     0.000,   1,1.0000
0 / END OF GENERATOR DATA, BEGIN BRANCH DATA
  1011,  1013,'1 ', 1.00000E-2, 7.00000E-2,   0.01380,  350.00,  350.00,  350.00,  0.00000,  0.00000,  0.00000,  0.00000,1,1,   0.00,   1,1.0000
  1011,  1013,'2 ', 1.00000E-2, 7.00000E-2,   0.01380,  350.00,  350.00,  350.00,  0.00000,  0.00000,  0.00000,  0.00000,1,1,   0.00,   1,1.0000
  1012,  1014,'1 ', 1.40237E-2, 9.00000E-2,   0.01805,  350.00,  350.00,  350.00,  0.00000,  0.00000,  0.00000,  0.00000,1,1,   0.00,   1,1.0000
  1012,  1014,'2 ', 1.40237E-2, 9.00000E-2,   0.01805,  350.00,  350.00,  350.00,  0.00000,  0.00000,  0.00000,  0.00000,1,1,   0.00,   1,1.0000
  1013,  1014,'1 ', 6.98225E-3, 5.00000E-2,   0.01009,  350.00,  350.00,  350.00,  0.00000,  0.00000,  0.00000,  0.00000,1,1,   0.00,   1,1.0000
  1013,  1014,'2 ', 6.98225E-3, 5.00000E-2,   0.01009,  350.00,  350.00,  350.00,  0.00000,  0.00000,  0.00000,  0.00000,1,1,   0.00,   1,1.0000
  1021,  1022,'1 ', 3.00000E-2, 2.00000E-1,   0.03026,  350.00,  350.00,  350.00,  0.00000,  0.00000,  0.00000,  0.00000,1,1,   0.00,   1,1.0000
  1021,  1022,'2 ', 3.00000E-2, 2.00000E-1,   0.03026,  350.00,  350.00,  350.00,  0.00000,  0.00000,  0.00000,  0.00000,1,1,   0.00,   1,1.0000
  1041,  1043,'1 ', 1.00000E-2, 6.00000E-2,   0.01221,  350.00,  350.00,  350.00,  0.00000,  0.00000,  0.00000,  0.00000,1,1,   0.00,   1,1.0000
  1041,  1043,'2 ', 1.00000E-2, 6.00000E-2,   0.01221,  350.00,  350.00,  350.00,  0.00000,  0.00000,  0.00000,  0.00000,1,1,   0.00,   1,1.0000
  1041,  1045,'1 ', 1.49704E-2, 1.20000E-1,   0.02495,  350.00,  350.00,  350.00,  0.00000,  0.00000,  0.00000,  0.00000,1,1,   0.00,   1,1.0000
  1041,  1045,'2 ', 1.49704E-2, 1.20000E-1,   0.02495,  350.00,  350.00,  350.00,  0.00000,  0.00000,  0.00000,  0.00000,1,1,   0.00,   1,1.0000
  1042,  1044,'1 ', 3.79882E-2, 2.80000E-1,   0.05999,  350.00,  350.00,  350.00,  0.00000,  0.00000,  0.00000,  0.00000,1,1,   0.00,   1,1.0000
  1042,  1044,'2 ', 3.79882E-2, 2.80000E-1,   0.05999,  350.00,  350.00,  350.00,  0.00000,  0.00000,  0.00000,  0.00000,1,1,   0.00,   1,1.0000
  1042,  1045,'1 ', 5.00000E-2, 3.00000E-1,   0.05999,  350.00,  350.00,  350.00,  0.00000,  0.00000,  0.00000,  0.00000,1,1,   0.00,   1,1.0000
  1043,  1044,'1 ', 1.00000E-2, 8.00000E-2,   0.01593,  350.00,  350.00,  350.00,  0.00000,  0.00000,  0.00000,  0.00000,1,1,   0.00,   1,1.0000
  1043,  1044,'2 ', 1.00000E-2, 8.00000E-2,   0.01593,  350.00,  350.00,  350.00,  0.00000,  0.00000,  0.00000,  0.00000,1,1,   0.00,   1,1.0000
  2031,  2032,'1 ', 1.20041E-2, 9.00000E-2,   0.01521,  500.00,  500.00,  500.00,  0.00000,  0.00000,  0.00000,  0.00000,1,1,   0.00,   1,1.0000
  2031,  2032,'2 ', 1.20041E-2, 9.00000E-2,   0.01521,  500.00,  500.00,  500.00,  0.00000,  0.00000,  0.00000,  0.00000,1,1,   0.00,   1,1.0000
  4011,  4012,'1 ', 1.00000E-3, 8.00000E-3,   0.20106, 1400.00, 1400.00, 1400.00,  0.00000,  0.00000,  0.00000,  0.00000,1,1,   0.00,   1,1.0000
  4011,  4021,'1 ', 6.00000E-3, 6.00000E-2,   1.79949, 1400.00, 1400.00, 1400.00,  0.00000,  0.00000,  0.00000,  0.00000,1,1,   0.00,   1,1.0000
  4011,  4022,'1 ', 4.00000E-3, 4.00000E-2,   1.20134, 1400.00, 1400.00, 1400.00,  0.00000,  0.00000,  0.00000,  0.00000,1,1,   0.00,   1,1.0000
  4011,  4071,'1 ', 5.00000E-3, 4.50000E-2,   1.40240, 1400.00, 1400.00, 1400.00,  0.00000,  0.00000,  0.00000,  0.00000,1,2,   0.00,   1,1.0000
  4012,  4022,'1 ', 4.00000E-3, 3.50000E-2,   1.05056, 1400.00, 1400.00, 1400.00,  0.00000,  0.00000,  0.00000,  0.00000,1,1,   0.00,   1,1.0000
  4012,  4071,'1 ', 5.00000E-3, 5.00000E-2,   1.49792, 1400.00, 1400.00, 1400.00,  0.00000,  0.00000,  0.00000,  0.00000,1,2,   0.00,   1,1.0000
  4021,  4032,'1 ', 4.00000E-3, 4.00000E-2,   1.20134, 1400.00, 1400.00, 1400.00,  0.00000,  0.00000,  0.00000,  0.00000,1,1,   0.00,   1,1.0000
  4021,  4042,'1 ', 1.00000E-2, 6.00000E-2,   3.00086, 1400.00, 1400.00, 1400.00,  0.00000,  0.00000,  0.00000,  0.00000,1,1,   0.00,   1,1.0000
  4022,  4031,'1 ', 4.00000E-3, 4.00000E-2,   1.20134, 1400.00, 1400.00, 1400.00,  0.00000,  0.00000,  0.00000,  0.00000,1,1,   0.00,   1,1.0000
  4022,  4031,'2 ', 4.00000E-3, 4.00000E-2,   1.20134, 1400.00, 1400.00, 1400.00,  0.00000,  0.00000,  0.00000,  0.00000,1,1,   0.00,   1,1.0000
  4031,  4032,'1 ', 1.00000E-3, 1.00000E-2,   0.30159, 1400.00, 1400.00, 1400.00,  0.00000,  0.00000,  0.00000,  0.00000,1,1,   0.00,   1,1.0000
  4031,  4041,'1 ', 6.00000E-3, 4.00000E-2,   2.39766, 1400.00, 1400.00, 1400.00,  0.00000,  0.00000,  0.00000,  0.00000,1,1,   0.00,   1,1.0000
  4031,  4041,'2 ', 6.00000E-3, 4.00000E-2,   2.39766, 1400.00, 1400.00, 1400.00,  0.00000,  0.00000,  0.00000,  0.00000,1,1,   0.00,   1,1.0000
  4032,  4042,'1 ', 1.00000E-2, 4.00000E-2,   2.00058, 1400.00, 1400.00, 1400.00,  0.00000,  0.00000,  0.00000,  0.00000,1,1,   0.00,   1,1.0000
  4032,  4044,'1 ', 6.00000E-3, 5.00000E-2,   2.39766, 1400.00, 1400.00, 1400.00,  0.00000,  0.00000,  0.00000,  0.00000,1,1,   0.00,   1,1.0000
  4041,  4044,'1 ', 3.00000E-3, 3.00000E-2,   0.89974, 1400.00, 1400.00, 1400.00,  0.00000,  0.00000,  0.00000,  0.00000,1,1,   0.00,   1,1.0000
  4041,  4061,'1 ', 6.00000E-3, 4.50000E-2,   1.30189, 1400.00, 1400.00, 1400.00,  0.00000,  0.00000,  0.00000,  0.00000,1,2,   0.00,   1,1.0000
  4042,  4043,'1 ', 2.00000E-3, 1.50000E-2,   0.49763, 1400.00, 1400.00, 1400.00,  0.00000,  0.00000,  0.00000,  0.00000,1,1,   0.00,   1,1.0000
  4042,  4044,'1 ', 2.00000E-3, 2.00000E-2,   0.59818, 1400.00, 1400.00, 1400.00,  0.00000,  0.00000,  0.00000,  0.00000,1,1,   0.00,   1,1.0000
  4043,  4044,'1 ', 1.00000E-3, 1.00000E-2,   0.30159, 1400.00, 1400.00, 1400.00,  0.00000,  0.00000,  0.00000,  0.00000,1,1,   0.00,   1,1.0000
  4043,  4046,'1 ', 1.00000E-3, 1.00000E-2,   0.30159, 1400.00, 1400.00, 1400.00,  0.00000,  0.00000,  0.00000,  0.00000,1,1,   0.00,   1,1.0000
  4043,  4047,'1 ', 2.00000E-3, 2.00000E-2,   0.59818, 1400.00, 1400.00, 1400.00,  0.00000,  0.00000,  0.00000,  0.00000,1,1,   0.00,   1,1.0000
  4044,  4045,'1 ', 2.00000E-3, 2.00000E-2,   0.59818, 1400.00, 1400.00, 1400.00,  0.00000,  0.00000,  0.00000,  0.00000,1,1,   0.00,   1,1.0000
  4044,  4045,'2 ', 2.00000E-3, 2.00000E-2,   0.59818, 1400.00, 1400.00, 1400.00,  0.00000,  0.00000,  0.00000,  0.00000,1,1,   0.00,   1,1.0000
  4045,  4051,'1 ', 4.00000E-3, 4.00000E-2,   1.20134, 1400.00, 1400.00, 1400.00,  0.00000,  0.00000,  0.00000,  0.00000,1,1,   0.00,   1,1.0000
  4045,  4051,'2 ', 4.00000E-3, 4.00000E-2,   1.20134, 1400.00, 1400.00, 1400.00,  0.00000,  0.00000,  0.00000,  0.00000,1,1,   0.00,   1,1.0000
  4045,  4062,'1 ', 1.10000E-2, 8.00000E-2,   2.39766, 1400.00, 1400.00, 1400.00,  0.00000,  0.00000,  0.00000,  0.00000,1,2,   0.00,   1,1.0000
  4046,  4047,'1 ', 1.00000E-3, 1.50000E-2,   0.49763, 1400.00, 1400.00, 1400.00,  0.00000,  0.00000,  0.00000,  0.00000,1,1,   0.00,   1,1.0000
  4061,  4062,'1 ', 2.00000E-3, 2.00000E-2,   0.59818, 1400.00, 1400.00, 1400.00,  0.00000,  0.00000,  0.00000,  0.00000,1,1,   0.00,   1,1.0000
  4062,  4063,'1 ', 3.00000E-3, 3.00000E-2,   0.89974, 1400.00, 1400.00, 1400.00,  0.00000,  0.00000,  0.00000,  0.00000,1,1,   0.00,   1,1.0000
  4062,  4063,'2 ', 3.00000E-3, 3.00000E-2,   0.89974, 1400.00, 1400.00, 1400.00,  0.00000,  0.00000,  0.00000,  0.00000,1,1,   0.00,   1,1.0000
  4071,  4072,'1 ', 3.00000E-3, 3.00000E-2,   3.00086, 1400.00, 1400.00, 1400.00,  0.00000,  0.00000,  0.00000,  0.00000,1,1,   0.00,   1,1.0000
  4071,  4072,'2 ', 3.00000E-3, 3.00000E-2,   3.00086, 1400.00, 1400.00, 1400.00,  0.00000,  0.00000,  0.00000,  0.00000,1,1,   0.00,   1,1.0000
0 / END OF BRANCH DATA, BEGIN TRANSFORMER DATA
  1041,     1,     0,'1 ',1,2,1, 0.00000E+0, 0.00000E+0,2,'            ',1,   1,1.0000,   0,1.0000,   0,1.0000,   0,1.0000,'            '
 0.00000E+0, 1.00000E-1,  1200.00
1.00000, 130.000,   0.000,  1200.00,  1200.00,  1200.00, 1,      1, 1.20000, 0.88000, 1.01000, 0.99000,  33, 0, 0.00000, 0.00000,  0.000
1.00000,  20.000
  1042,     2,     0,'1 ',1,2,1, 0.00000E+0, 0.00000E+0,2,'            ',1,   1,1.0000,   0,1.0000,   0,1.0000,   0,1.0000,'            '
 0.00000E+0, 1.00000E-1,   600.00
1.00000, 130.000,   0.000,   600.00,   600.00,   600.00, 1,      2, 1.20000, 0.88000, 1.01000, 0.99000,  33, 0, 0.00000, 0.00000,  0.000
1.00000,  20.000
  1043,     3,     0,'1 ',1,2,1, 0.00000E+0, 0.00000E+0,2,'            ',1,   1,1.0000,   0,1.0000,   0,1.0000,   0,1.0000,'            '
 0.00000E+0, 1.00000E-1,   460.00
1.01000, 130.000,   0.000,   460.00,   460.00,   460.00, 1,      3, 1.20000, 0.88000, 1.01000, 0.99000,  33, 0, 0.00000, 0.00000,  0.000
1.00000,  20.000
  1044,     4,     0,'1 ',1,2,1, 0.00000E+0, 0.00000E+0,2,'            ',1,   1,1.0000,   0,1.0000,   0,1.0000,   0,1.0000,'            '
 0.00000E+0, 1.00000E-1,  1600.00
0.99000, 130.000,   0.000,  1600.00,  1600.00,  1600.00, 1,      4, 1.20000, 0.88000, 1.01000, 0.99000,  33, 0, 0.00000, 0.00000,  0.000
1.00000,  20.000
  1045,     5,     0,'1 ',1,2,1, 0.00000E+0, 0.00000E+0,2,'            ',1,   1,1.0000,   0,1.0000,   0,1.0000,   0,1.0000,'            '
 0.00000E+0, 1.00000E-1,  1400.00
1.00000, 130.000,   0.000,  1400.00,  1400.00,  1400.00, 1,      5, 1.20000, 0.88000, 1.01000, 0.99000,  33, 0, 0.00000, 0.00000,  0.000
1.00000,  20.000
  1011,    11,     0,'1 ',1,2,1, 0.00000E+0, 0.00000E+0,2,'            ',1,   1,1.0000,   0,1.0000,   0,1.0000,   0,1.0000,'            '
 0.00000E+0, 1.00000E-1,   400.00
1.04000, 130.000,   0.000,   400.00,   400.00,   400.00, 1,     11, 1.20000, 0.88000, 1.01000, 0.99000,  33, 0, 0.00000, 0.00000,  0.000
1.00000,  20.000
  1012,    12,     0,'1 ',1,2,1, 0.00000E+0, 0.00000E+0,2,'            ',1,   1,1.0000,   0,1.0000,   0,1.0000,   0,1.0000,'            '
 0.00000E+0, 1.00000E-1,   600.00
1.05000, 130.000,   0.000,   600.00,   600.00,   600.00, 1,     12, 1.20000, 0.88000, 1.01000, 0.99000,  33, 0, 0.00000, 0.00000,  0.000
1.00000,  20.000
  1013,    13,     0,'1 ',1,2,1, 0.00000E+0, 0.00000E+0,2,'            ',1,   1,1.0000,   0,1.0000,   0,1.0000,   0,1.0000,'            '
 0.00000E+0, 1.00000E-1,   200.00
1.04000, 130.000,   0.000,   200.00,   200.00,   200.00, 1,     13, 1.20000, 0.88000, 1.01000, 0.99000,  33, 0, 0.00000, 0.00000,  0.000
1.00000,  20.000
  1022,    22,     0,'1 ',1,2,1, 0.00000E+0, 0.00000E+0,2,'            ',1,   1,1.0000,   0,1.0000,   0,1.0000,   0,1.0000,'            '
 0.00000E+0, 1.00000E-1,   560.00
1.04000, 130.000,   0.000,   560.00,   560.00,   560.00, 1,     22, 1.20000, 0.88000, 1.01000, 0.99000,  33, 0, 0.00000, 0.00000,  0.000
1.00000,  20.000
  2031,    31,     0,'1 ',1,2,1, 0.00000E+0, 0.00000E+0,2,'            ',1,   1,1.0000,   0,1.0000,   0,1.0000,   0,1.0000,'            '
 0.00000E+0, 1.00000E-1,   200.00
1.01000, 220.000,   0.000,   200.00,   200.00,   200.00, 1,     31, 1.20000, 0.88000, 1.01000, 0.99000,  33, 0, 0.00000, 0.00000,  0.000
1.00000,  20.000
  2032,    32,     0,'1 ',1,2,1, 0.00000E+0, 0.00000E+0,2,'            ',1,   1,1.0000,   0,1.0000,   0,1.0000,   0,1.0000,'            '
 0.00000E+0, 1.00000E-1,   400.00
1.06000, 220.000,   0.000,   400.00,   400.00,   400.00, 1,     32, 1.20000, 0.88000, 1.01000, 0.99000,  33, 0, 0.00000, 0.00000,  0.000
1.00000,  20.000
  4041,    41,     0,'1 ',1,2,1, 0.00000E+0, 0.00000E+0,2,'            ',1,   1,1.0000,   0,1.0000,   0,1.0000,   0,1.0000,'            '
 0.00000E+0, 1.00000E-1,  1080.00
1.04000, 400.000,   0.000,  1080.00,  1080.00,  1080.00, 1,     41, 1.20000, 0.88000, 1.01000, 0.99000,  33, 0, 0.00000, 0.00000,  0.000
1.00000,  20.000
  4042,    42,     0,'1 ',1,2,1, 0.00000E+0, 0.00000E+0,2,'            ',1,   1,1.0000,   0,1.0000,   0,1.0000,   0,1.0000,'            '
 0.00000E+0, 1.00000E-1,   800.00
1.03000, 400.000,   0.000,   800.00,   800.00,   800.00, 1,     42, 1.20000, 0.88000, 1.01000, 0.99000,  33, 0, 0.00000, 0.00000,  0.000
1.00000,  20.000
  4043,    43,     0,'1 ',1,2,1, 0.00000E+0, 0.00000E+0,2,'            ',1,   1,1.0000,   0,1.0000,   0,1.0000,   0,1.0000,'            '
 0.00000E+0, 1.00000E-1,  1800.00
1.02000, 400.000,   0.000,  1800.00,  1800.00,  1800.00, 1,     43, 1.20000, 0.88000, 1.01000, 0.99000,  33, 0, 0.00000, 0.00000,  0.000
1.00000,  20.000
  4046,    46,     0,'1 ',1,2,1, 0.00000E+0, 0.00000E+0,2,'            ',1,   1,1.0000,   0,1.0000,   0,1.0000,   0,1.0000,'            '
 0.00000E+0, 1.00000E-1,  1400.00
1.02000, 400.000,   0.000,  1400.00,  1400.00,  1400.00, 1,     46, 1.20000, 0.88000, 1.01000, 0.99000,  33, 0, 0.00000, 0.00000,  0.000
1.00000,  20.000
  4047,    47,     0,'1 ',1,2,1, 0.00000E+0, 0.00000E+0,2,'            ',1,   1,1.0000,   0,1.0000,   0,1.0000,   0,1.0000,'            '
 0.00000E+0, 1.00000E-1,   200.00
1.04000, 400.000,   0.000,   200.00,   200.00,   200.00, 1,     47, 1.20000, 0.88000, 1.01000, 0.99000,  33, 0, 0.00000, 0.00000,  0.000
1.00000,  20.000
  4051,    51,     0,'1 ',1,2,1, 0.00000E+0, 0.00000E+0,2,'            ',1,   1,1.0000,   0,1.0000,   0,1.0000,   0,1.0000,'            '
 0.00000E+0, 1.00000E-1,  1600.00
1.05000, 400.000,   0.000,  1600.00,  1600.00,  1600.00, 1,     51, 1.20000, 0.88000, 1.01000, 0.99000,  33, 0, 0.00000, 0.00000,  0.000
1.00000,  20.000
  4061,    61,     0,'1 ',1,2,1, 0.00000E+0, 0.00000E+0,2,'            ',1,   1,1.0000,   0,1.0000,   0,1.0000,   0,1.0000,'            '
 0.00000E+0, 1.00000E-1,  1000.00
1.03000, 400.000,   0.000,  1000.00,  1000.00,  1000.00, 1,     61, 1.20000, 0.88000, 1.01000, 0.99000,  33, 0, 0.00000, 0.00000,  0.000
1.00000,  20.000
  4062,    62,     0,'1 ',1,2,1, 0.00000E+0, 0.00000E+0,2,'            ',1,   1,1.0000,   0,1.0000,   0,1.0000,   0,1.0000,'            '
 0.00000E+0, 1.00000E-1,   600.00
1.04000, 400.000,   0.000,   600.00,   600.00,   600.00, 1,     62, 1.20000, 0.88000, 1.01000, 0.99000,  33, 0, 0.00000, 0.00000,  0.000
1.00000,  20.000
  4063,    63,     0,'1 ',1,2,1, 0.00000E+0, 0.00000E+0,2,'            ',1,   1,1.0000,   0,1.0000,   0,1.0000,   0,1.0000,'            '
 0.00000E+0, 1.00000E-1,  1180.00
1.03000, 400.000,   0.000,  1180.00,  1180.00,  1180.00, 1,     63, 1.20000, 0.88000, 1.01000, 0.99000,  33, 0, 0.00000, 0.00000,  0.000
1.00000,  20.000
  4071,    71,     0,'1 ',1,2,1, 0.00000E+0, 0.00000E+0,2,'            ',1,   1,1.0000,   0,1.0000,   0,1.0000,   0,1.0000,'            '
 0.00000E+0, 1.00000E-1,   600.00
1.03000, 400.000,   0.000,   600.00,   600.00,   600.00, 1,     71, 1.20000, 0.88000, 1.01000, 0.99000,  33, 0, 0.00000, 0.00000,  0.000
1.00000,  20.000
  4072,    72,     0,'1 ',1,2,1, 0.00000E+0, 0.00000E+0,2,'            ',1,   1,1.0000,   0,1.0000,   0,1.0000,   0,1.0000,'            '
 0.00000E+0, 1.00000E-1,  4000.00
1.05000, 400.000,   0.000,  4000.00,  4000.00,  4000.00, 1,     72, 1.20000, 0.88000, 1.01000, 0.99000,  33, 0, 0.00000, 0.00000,  0.000
1.00000,  20.000
  4011,  1011,     0,'1 ',1,2,1, 0.00000E+0, 0.00000E+0,2,'1011-4011   ',1,   1,1.0000,   0,1.0000,   0,1.0000,   0,1.0000,'            '
 0.00000E+0, 1.00000E-1,  1250.00
0.95000, 400.000,   0.000,  1250.00,  1250.00,  1250.00, 0,      0, 1.10000, 0.90000, 1.10000, 0.90000,  33, 0, 0.00000, 0.00000,  0.000
1.00000, 130.000
  4012,  1012,     0,'1 ',1,2,1, 0.00000E+0, 0.00000E+0,2,'1012-4012   ',1,   1,1.0000,   0,1.0000,   0,1.0000,   0,1.0000,'            '
 0.00000E+0, 1.00000E-1,  1250.00
0.95000, 400.000,   0.000,  1250.00,  1250.00,  1250.00, 0,      0, 1.10000, 0.90000, 1.10000, 0.90000,  33, 0, 0.00000, 0.00000,  0.000
1.00000, 130.000
  1012, 50001,     0,'1 ',1,2,1, 0.00000E+0, 0.00000E+0,2,'G1          ',1,   1,1.0000,   0,1.0000,   0,1.0000,   0,1.0000,'            '
 0.00000E+0, 1.50000E-1,   800.00
1.00000, 130.000,   0.000,   800.00,   800.00,   800.00, 0,      0, 1.10000, 0.90000, 1.10000, 0.90000,  33, 0, 0.00000, 0.00000,  0.000
1.00000,  15.000
  1013, 50002,     0,'1 ',1,2,1, 0.00000E+0, 0.00000E+0,2,'G2          ',1,   1,1.0000,   0,1.0000,   0,1.0000,   0,1.0000,'            '
 0.00000E+0, 1.50000E-1,   600.00
1.00000, 130.000,   0.000,   600.00,   600.00,   600.00, 0,      0, 1.10000, 0.90000, 1.10000, 0.90000,  33, 0, 0.00000, 0.00000,  0.000
1.00000,  15.000
  1014, 50003,     0,'1 ',1,2,1, 0.00000E+0, 0.00000E+0,2,'G3          ',1,   1,1.0000,   0,1.0000,   0,1.0000,   0,1.0000,'            '
 0.00000E+0, 1.50000E-1,   700.00
1.00000, 130.000,   0.000,   700.00,   700.00,   700.00, 0,      0, 1.10000, 0.90000, 1.10000, 0.90000,  33, 0, 0.00000, 0.00000,  0.000
1.00000,  15.000
  1021, 50004,     0,'1 ',1,2,1, 0.00000E+0, 0.00000E+0,2,'G4          ',1,   1,1.0000,   0,1.0000,   0,1.0000,   0,1.0000,'            '
 0.00000E+0, 1.50000E-1,   600.00
1.00000, 130.000,   0.000,   600.00,   600.00,   600.00, 0,      0, 1.10000, 0.90000, 1.10000, 0.90000,  33, 0, 0.00000, 0.00000,  0.000
1.00000,  15.000
  4022,  1022,     0,'1 ',1,2,1, 0.00000E+0, 0.00000E+0,2,'1022-4022   ',1,   1,1.0000,   0,1.0000,   0,1.0000,   0,1.0000,'            '
 0.00000E+0, 1.00000E-1,   833.30
0.93000, 400.000,   0.000,   833.30,   833.30,   833.30, 0,      0, 1.10000, 0.90000, 1.10000, 0.90000,  33, 0, 0.00000, 0.00000,  0.000
1.00000, 130.000
  1022, 50005,     0,'1 ',1,2,1, 0.00000E+0, 0.00000E+0,2,'G5          ',1,   1,1.0000,   0,1.0000,   0,1.0000,   0,1.0000,'            '
 0.00000E+0, 1.50000E-1,   250.00
1.05000, 130.000,   0.000,   250.00,   250.00,   250.00, 0,      0, 1.10000, 0.90000, 1.10000, 0.90000,  33, 0, 0.00000, 0.00000,  0.000
1.00000,  15.000
  1042, 50006,     0,'1 ',1,2,1, 0.00000E+0, 0.00000E+0,2,'G6          ',1,   1,1.0000,   0,1.0000,   0,1.0000,   0,1.0000,'            '
 0.00000E+0, 1.50000E-1,   400.00
1.05000, 130.000,   0.000,   400.00,   400.00,   400.00, 0,      0, 1.10000, 0.90000, 1.10000, 0.90000,  33, 0, 0.00000, 0.00000,  0.000
1.00000,  15.000
  1043, 50007,     0,'1 ',1,2,1, 0.00000E+0, 0.00000E+0,2,'G7          ',1,   1,1.0000,   0,1.0000,   0,1.0000,   0,1.0000,'            '
 0.00000E+0, 1.50000E-1,   200.00
1.05000, 130.000,   0.000,   200.00,   200.00,   200.00, 0,      0, 1.10000, 0.90000, 1.10000, 0.90000,  33, 0, 0.00000, 0.00000,  0.000
1.00000,  15.000
  4044,  1044,     0,'A ',1,2,1, 0.00000E+0, 0.00000E+0,2,'1044-4044 A ',1,   1,1.0000,   0,1.0000,   0,1.0000,   0,1.0000,'            '
 0.00000E+0, 1.00000E-1,  1000.00
1.03000, 400.000,   0.000,  1000.00,  1000.00,  1000.00, 0,      0, 1.10000, 0.90000, 1.10000, 0.90000,  33, 0, 0.00000, 0.00000,  0.000
1.00000, 130.000
  4044,  1044,     0,'B ',1,2,1, 0.00000E+0, 0.00000E+0,2,'1044-4044 B ',1,   1,1.0000,   0,1.0000,   0,1.0000,   0,1.0000,'            '
 0.00000E+0, 1.00000E-1,  1000.00
1.03000, 400.000,   0.000,  1000.00,  1000.00,  1000.00, 0,      0, 1.10000, 0.90000, 1.10000, 0.90000,  33, 0, 0.00000, 0.00000,  0.000
1.00000, 130.000
  4045,  1045,     0,'A ',1,2,1, 0.00000E+0, 0.00000E+0,2,'1045-4045 A ',1,   1,1.0000,   0,1.0000,   0,1.0000,   0,1.0000,'            '
 0.00000E+0, 1.00000E-1,  1000.00
1.04000, 400.000,   0.000,  1000.00,  1000.00,  1000.00, 0,      0, 1.10000, 0.90000, 1.10000, 0.90000,  33, 0, 0.00000, 0.00000,  0.000
1.00000, 130.000
  4045,  1045,     0,'B ',1,2,1, 0.00000E+0, 0.00000E+0,2,'1045-4045 B ',1,   1,1.0000,   0,1.0000,   0,1.0000,   0,1.0000,'            '
 0.00000E+0, 1.00000E-1,  1000.00
1.04000, 400.000,   0.000,  1000.00,  1000.00,  1000.00, 0,      0, 1.10000, 0.90000, 1.10000, 0.90000,  33, 0, 0.00000, 0.00000,  0.000
1.00000, 130.000
  4031,  2031,     0,'1 ',1,2,1, 0.00000E+0, 0.00000E+0,2,'2031-4031   ',1,   1,1.0000,   0,1.0000,   0,1.0000,   0,1.0000,'            '
 0.00000E+0, 1.00000E-1,   833.30
1.00000, 400.000,   0.000,   833.30,   833.30,   833.30, 0,      0, 1.10000, 0.90000, 1.10000, 0.90000,  33, 0, 0.00000, 0.00000,  0.000
1.00000, 220.000
  2032, 50008,     0,'1 ',1,2,1, 0.00000E+0, 0.00000E+0,2,'G8          ',1,   1,1.0000,   0,1.0000,   0,1.0000,   0,1.0000,'            '
 0.00000E+0, 1.50000E-1,   850.00
1.05000, 220.000,   0.000,   850.00,   850.00,   850.00, 0,      0, 1.10000, 0.90000, 1.10000, 0.90000,  33, 0, 0.00000, 0.00000,  0.000
1.00000,  15.000
  4011, 50009,     0,'1 ',1,2,1, 0.00000E+0, 0.00000E+0,2,'G9          ',1,   1,1.0000,   0,1.0000,   0,1.0000,   0,1.0000,'            '
 0.00000E+0, 1.50000E-1,  1000.00
1.05000, 400.000,   0.000,  1000.00,  1000.00,  1000.00, 0,      0, 1.10000, 0.90000, 1.10000, 0.90000,  33, 0, 0.00000, 0.00000,  0.000
1.00000,  15.000
  4012, 50010,     0,'1 ',1,2,1, 0.00000E+0, 0.00000E+0,2,'G10         ',1,   1,1.0000,   0,1.0000,   0,1.0000,   0,1.0000,'            '
 0.00000E+0, 1.50000E-1,   800.00
1.05000, 400.000,   0.000,   800.00,   800.00,   800.00, 0,      0, 1.10000, 0.90000, 1.10000, 0.90000,  33, 0, 0.00000, 0.00000,  0.000
1.00000,  15.000
  4021, 50011,     0,'1 ',1,2,1, 0.00000E+0, 0.00000E+0,2,'G11         ',1,   1,1.0000,   0,1.0000,   0,1.0000,   0,1.0000,'            '
 0.00000E+0, 1.50000E-1,   300.00
1.05000, 400.000,   0.000,   300.00,   300.00,   300.00, 0,      0, 1.10000, 0.90000, 1.10000, 0.90000,  33, 0, 0.00000, 0.00000,  0.000
1.00000,  15.000
  4031, 50012,     0,'1 ',1,2,1, 0.00000E+0, 0.00000E+0,2,'G12         ',1,   1,1.0000,   0,1.0000,   0,1.0000,   0,1.0000,'            '
 0.00000E+0, 1.50000E-1,   350.00
1.05000, 400.000,   0.000,   350.00,   350.00,   350.00, 0,      0, 1.10000, 0.90000, 1.10000, 0.90000,  33, 0, 0.00000, 0.00000,  0.000
1.00000,  15.000
  4041, 50013,     0,'1 ',1,2,1, 0.00000E+0, 0.00000E+0,2,'G13         ',1,   1,1.0000,   0,1.0000,   0,1.0000,   0,1.0000,'            '
 0.00000E+0, 1.00000E-1,   300.00
1.05000, 400.000,   0.000,   300.00,   300.00,   300.00, 0,      0, 1.10000, 0.90000, 1.10000, 0.90000,  33, 0, 0.00000, 0.00000,  0.000
1.00000,  15.000
  4042, 50014,     0,'1 ',1,2,1, 0.00000E+0, 0.00000E+0,2,'G14         ',1,   1,1.0000,   0,1.0000,   0,1.0000,   0,1.0000,'            '
 0.00000E+0, 1.50000E-1,   700.00
1.05000, 400.000,   0.000,   700.00,   700.00,   700.00, 0,      0, 1.10000, 0.90000, 1.10000, 0.90000,  33, 0, 0.00000, 0.00000,  0.000
1.00000,  15.000
  4047, 50015,     0,'1 ',1,2,1, 0.00000E+0, 0.00000E+0,2,'G15         ',1,   1,1.0000,   0,1.0000,   0,1.0000,   0,1.0000,'            '
 0.00000E+0, 1.50000E-1,  1200.00
1.05000, 400.000,   0.000,  1200.00,  1200.00,  1200.00, 0,      0, 1.10000, 0.90000, 1.10000, 0.90000,  33, 0, 0.00000, 0.00000,  0.000
1.00000,  15.000
  4051, 50016,     0,'1 ',1,2,1, 0.00000E+0, 0.00000E+0,2,'G16         ',1,   1,1.0000,   0,1.0000,   0,1.0000,   0,1.0000,'            '
 0.00000E+0, 1.50000E-1,   700.00
1.05000, 400.000,   0.000,   700.00,   700.00,   700.00, 0,      0, 1.10000, 0.90000, 1.10000, 0.90000,  33, 0, 0.00000, 0.00000,  0.000
1.00000,  15.000
  4062, 50017,     0,'1 ',1,2,1, 0.00000E+0, 0.00000E+0,2,'G17         ',1,   1,1.0000,   0,1.0000,   0,1.0000,   0,1.0000,'            '
 0.00000E+0, 1.50000E-1,   600.00
1.05000, 400.000,   0.000,   600.00,   600.00,   600.00, 0,      0, 1.10000, 0.90000, 1.10000, 0.90000,  33, 0, 0.00000, 0.00000,  0.000
1.00000,  15.000
  4063, 50018,     0,'1 ',1,2,1, 0.00000E+0, 0.00000E+0,2,'G18         ',1,   1,1.0000,   0,1.0000,   0,1.0000,   0,1.0000,'            '
 0.00000E+0, 1.50000E-1,  1200.00
1.05000, 400.000,   0.000,  1200.00,  1200.00,  1200.00, 0,      0, 1.10000, 0.90000, 1.10000, 0.90000,  33, 0, 0.00000, 0.00000,  0.000
1.00000,  15.000
  4071, 50019,     0,'1 ',1,2,1, 0.00000E+0, 0.00000E+0,2,'G19         ',1,   1,1.0000,   0,1.0000,   0,1.0000,   0,1.0000,'            '
 0.00000E+0, 1.50000E-1,   500.00
1.05000, 400.000,   0.000,   500.00,   500.00,   500.00, 0,      0, 1.10000, 0.90000, 1.10000, 0.90000,  33, 0, 0.00000, 0.00000,  0.000
1.00000,  15.000
  4072, 50020,     0,'1 ',1,2,1, 0.00000E+0, 0.00000E+0,2,'G20         ',1,   1,1.0000,   0,1.0000,   0,1.0000,   0,1.0000,'            '
 0.00000E+0, 1.50000E-1,  4500.00
1.05000, 400.000,   0.000,  4500.00,  4500.00,  4500.00, 0,      0, 1.10000, 0.90000, 1.10000, 0.90000,  33, 0, 0.00000, 0.00000,  0.000
1.00000,  15.000
0 / END OF TRANSFORMER DATA, BEGIN AREA DATA
   1, 50009,     0.000,    10.000,'NORTH       '
   2, 50015,     0.000,    10.000,'CENTRAL     '
   3, 50018,     0.000,    10.000,'SOUTH       '
   4, 50020,     0.000,    10.000,'EQUIV       '
0 / END OF AREA DATA, BEGIN TWO-TERMINAL DC DATA
0 / END OF TWO-TERMINAL DC DATA, BEGIN VSC DC LINE DATA
0 / END OF VSC DC LINE DATA, BEGIN IMPEDANCE CORRECTION DATA
0 / END OF IMPEDANCE CORRECTION DATA, BEGIN MULTI-TERMINAL DC DATA
0 / END OF MULTI-TERMINAL DC DATA, BEGIN MULTI-SECTION LINE DATA
0 / END OF MULTI-SECTION LINE DATA, BEGIN ZONE DATA
0 / END OF ZONE DATA, BEGIN INTER-AREA TRANSFER DATA
0 / END OF INTER-AREA TRANSFER DATA, BEGIN OWNER DATA
0 / END OF OWNER DATA, BEGIN FACTS DEVICE DATA
0 / END OF FACTS DEVICE DATA, BEGIN SWITCHED SHUNT DATA
  1022,1,0,1,1.07016,1.04016,     0,  100.0,'            ',   50.00, 2,   25.00
  1041,1,0,1,1.03152,1.00152,     0,  100.0,'            ',  250.00, 2,  125.00
  1043,1,0,1,1.04604,1.01604,     0,  100.0,'            ',  200.00, 2,  100.00
  1044,1,0,1,1.02556,0.99556,     0,  100.0,'            ',  200.00, 2,  100.00
  1045,1,0,1,1.02961,0.99961,     0,  100.0,'            ',  200.00, 2,  100.00
  4012,1,0,1,1.03977,1.00977,     0,  100.0,'            ', -100.00, 2,  -50.00
  4041,1,0,1,1.07080,1.04079,     0,  100.0,'            ',  200.00, 2,  100.00
  4043,1,0,1,1.05535,1.02535,     0,  100.0,'            ',  200.00, 2,  100.00
  4046,1,0,1,1.05360,1.02360,     0,  100.0,'            ',  100.00, 2,   50.00
  4051,1,0,1,1.08301,1.05301,     0,  100.0,'            ',  100.00, 2,   50.00
  4071,1,0,1,1.06392,1.03392,     0,  100.0,'            ', -400.00, 2, -200.00
0 / END OF SWITCHED SHUNT DATA, BEGIN GNE DATA
0 / END OF GNE DATA, BEGIN INDUCTION MACHINE DATA
0 / END OF INDUCTION MACHINE DATA
Q
